pglib_opf_case24_ieee_rts/pglib_opf_case24_ieee_rts_2regions.m
% -------------------------------------------------------------------------
% Partitioned MATPOWER Case File
% Copyright (c) 2025 Milad Hasanzadeh
% Generated on: 2026-06-09
% This file contains partitioned data for 2 regions


% -------------------- mpc_regionR1 --------------------

mpc_regionR1.version = '2';
mpc_regionR1.baseMVA = 100.0000;
mpc_regionR1.bus = [
%	bus_i       type        Pd          Qd          Gs          Bs          area        Vm          Va          baseKV      zone        Vmax        Vmin        
	 1	 2	 108	 22	 0	 0	 1	 1	 0	 138	 1	 1.05	 0.95;
	 2	 2	 97	 20	 0	 0	 1	 1	 0	 138	 1	 1.05	 0.95;
	 3	 1	 180	 37	 0	 0	 1	 1	 0	 138	 1	 1.05	 0.95;
	 4	 1	 74	 15	 0	 0	 1	 1	 0	 138	 1	 1.05	 0.95;
	 5	 1	 71	 14	 0	 0	 1	 1	 0	 138	 1	 1.05	 0.95;
	 6	 1	 136	 28	 0	-100	 2	 1	 0	 138	 1	 1.05	 0.95;
	 7	 2	 125	 25	 0	 0	 2	 1	 0	 138	 1	 1.05	 0.95;
	 8	 1	 171	 35	 0	 0	 2	 1	 0	 138	 1	 1.05	 0.95;
	 9	 1	 175	 36	 0	 0	 1	 1	 0	 138	 1	 1.05	 0.95;
	 10	 1	 195	 40	 0	 0	 2	 1	 0	 138	 1	 1.05	 0.95;
	 11	 1	 0	 0	 0	 0	 3	 1	 0	 230	 1	 1.05	 0.95;
	 12	 1	 0	 0	 0	 0	 3	 1	 0	 230	 1	 1.05	 0.95;
	 13	 3	 265	 54	 0	 0	 3	 1	 0	 230	 1	 1.05	 0.95;
	 14	 2	 0	 0	 0	 0	 3	 1	 0	 230	 1	 1.05	 0.95;
];

mpc_regionR1.gen = [
%	bus         Pg          Qg          Qmax        Qmin        Vg          mBase       status      Pmax        Pmin        Pc1         Pc2         Qc1min      Qc1max      Qc2min      Qc2max      ramp_agc    ramp_10     ramp_30     ramp_q      apf         
	 1	 18	 5	 10	 0	 1	 100	 1	 20	 16;
	 1	 18	 5	 10	 0	 1	 100	 1	 20	 16;
	 1	 45.6	 2.5	 30	-25	 1	 100	 1	 76	 15.2;
	 1	 45.6	 2.5	 30	-25	 1	 100	 1	 76	 15.2;
	 2	 18	 5	 10	 0	 1	 100	 1	 20	 16;
	 2	 18	 5	 10	 0	 1	 100	 1	 20	 16;
	 2	 45.6	 2.5	 30	-25	 1	 100	 1	 76	 15.2;
	 2	 45.6	 2.5	 30	-25	 1	 100	 1	 76	 15.2;
	 7	 62.5	 30	 60	 0	 1	 100	 1	 100	 25;
	 7	 62.5	 30	 60	 0	 1	 100	 1	 100	 25;
	 7	 62.5	 30	 60	 0	 1	 100	 1	 100	 25;
	 13	 133	 40	 80	 0	 1	 100	 1	 197	 69;
	 13	 133	 40	 80	 0	 1	 100	 1	 197	 69;
	 13	 133	 40	 80	 0	 1	 100	 1	 197	 69;
	 14	 104.65	 15	 80	-50	 1	 100	 1	 155	 54.3;
	 14	 104.65	 15	 80	-50	 1	 100	 1	 155	 54.3;
	 14	 245	 62.5	 150	-25	 1	 100	 1	 350	 140;
];

mpc_regionR1.branch = [
%	fbus        tbus        r           x           b           rateA       rateB       rateC       ratio       angle       status      angmin      angmax      
	 1	 2	 0.0026	 0.0139	 0.4611	 175	 193	 200	 0	 0	 1	-30	 30;
	 1	 3	 0.0546	 0.2112	 0.0572	 175	 208	 220	 0	 0	 1	-30	 30;
	 1	 5	 0.0218	 0.0845	 0.0229	 175	 208	 220	 0	 0	 1	-30	 30;
	 2	 4	 0.0328	 0.1267	 0.0343	 175	 208	 220	 0	 0	 1	-30	 30;
	 2	 6	 0.0497	 0.192	 0.052	 175	 208	 220	 0	 0	 1	-30	 30;
	 3	 9	 0.0308	 0.119	 0.0322	 175	 208	 220	 0	 0	 1	-30	 30;
	 4	 9	 0.0268	 0.1037	 0.0281	 175	 208	 220	 0	 0	 1	-30	 30;
	 5	 10	 0.0228	 0.0883	 0.0239	 175	 208	 220	 0	 0	 1	-30	 30;
	 6	 10	 0.0139	 0.0605	 2.459	 175	 193	 200	 0	 0	 1	-30	 30;
	 7	 8	 0.0159	 0.0614	 0.0166	 175	 208	 220	 0	 0	 1	-30	 30;
	 8	 9	 0.0427	 0.1651	 0.0447	 175	 208	 220	 0	 0	 1	-30	 30;
	 8	 10	 0.0427	 0.1651	 0.0447	 175	 208	 220	 0	 0	 1	-30	 30;
	 9	 11	 0.0023	 0.0839	 0	 400	 510	 600	 1.03	 0	 1	-30	 30;
	 9	 12	 0.0023	 0.0839	 0	 400	 510	 600	 1.03	 0	 1	-30	 30;
	 10	 11	 0.0023	 0.0839	 0	 400	 510	 600	 1.02	 0	 1	-30	 30;
	 10	 12	 0.0023	 0.0839	 0	 400	 510	 600	 1.02	 0	 1	-30	 30;
	 11	 13	 0.0061	 0.0476	 0.0999	 500	 600	 625	 0	 0	 1	-30	 30;
	 12	 13	 0.0061	 0.0476	 0.0999	 500	 600	 625	 0	 0	 1	-30	 30;
	 12	 14	 0.0124	 0.0966	 0.203	 500	 600	 625	 0	 0	 1	-30	 30;
	 13	 14	 0.0111	 0.0865	 0.1818	 500	 600	 625	 0	 0	 1	-30	 30;
];

mpc_regionR1.gencost = [
%	2           startup     shutdown    n           c(n-1)...c0 
	 2	 1500	 0	 3	 0	 130	 400.6849;
	 2	 1500	 0	 3	 0	 130	 400.6849;
	 2	 1500	 0	 3	 0.014142	 16.0811	 212.3076;
	 2	 1500	 0	 3	 0.014142	 16.0811	 212.3076;
	 2	 1500	 0	 3	 0	 130	 400.6849;
	 2	 1500	 0	 3	 0	 130	 400.6849;
	 2	 1500	 0	 3	 0.014142	 16.0811	 212.3076;
	 2	 1500	 0	 3	 0.014142	 16.0811	 212.3076;
	 2	 1500	 0	 3	 0.052672	 43.6615	 781.521;
	 2	 1500	 0	 3	 0.052672	 43.6615	 781.521;
	 2	 1500	 0	 3	 0.052672	 43.6615	 781.521;
	 2	 1500	 0	 3	 0.00717	 48.5804	 832.7575;
	 2	 1500	 0	 3	 0.00717	 48.5804	 832.7575;
	 2	 1500	 0	 3	 0.00717	 48.5804	 832.7575;
	 2	 1500	 0	 3	 0.008342	 12.3883	 382.2391;
	 2	 1500	 0	 3	 0.008342	 12.3883	 382.2391;
	 2	 1500	 0	 3	 0.004895	 11.8495	 665.1094;
];


% -------------------- mpc_regionR2 --------------------

mpc_regionR2.version = '2';
mpc_regionR2.baseMVA = 100.0000;
mpc_regionR2.bus = [
%	bus_i       type        Pd          Qd          Gs          Bs          area        Vm          Va          baseKV      zone        Vmax        Vmin        
	 1	 2	 194	 39	 0	 0	 3	 1	 0	 230	 1	 1.05	 0.95;
	 2	 2	 317	 64	 0	 0	 4	 1	 0	 230	 1	 1.05	 0.95;
	 3	 2	 100	 20	 0	 0	 4	 1	 0	 230	 1	 1.05	 0.95;
	 4	 1	 0	 0	 0	 0	 4	 1	 0	 230	 1	 1.05	 0.95;
	 5	 2	 333	 68	 0	 0	 4	 1	 0	 230	 1	 1.05	 0.95;
	 6	 1	 181	 37	 0	 0	 3	 1	 0	 230	 1	 1.05	 0.95;
	 7	 1	 128	 26	 0	 0	 3	 1	 0	 230	 1	 1.05	 0.95;
	 8	 2	 0	 0	 0	 0	 4	 1	 0	 230	 1	 1.05	 0.95;
	 9	 2	 0	 0	 0	 0	 4	 1	 0	 230	 1	 1.05	 0.95;
	 10	 1	 0	 0	 0	 0	 4	 1	 0	 230	 1	 1.05	 0.95;
];

mpc_regionR2.gen = [
%	bus         Pg          Qg          Qmax        Qmin        Vg          mBase       status      Pmax        Pmin        Pc1         Pc2         Qc1min      Qc1max      Qc2min      Qc2max      ramp_agc    ramp_10     ramp_30     ramp_q      apf         
	 1	 0	 75	 200	-50	 1	 100	 1	 0	 0;
	 2	 7.2	 3	 6	 0	 1	 100	 1	 12	 2.4;
	 2	 7.2	 3	 6	 0	 1	 100	 1	 12	 2.4;
	 2	 7.2	 3	 6	 0	 1	 100	 1	 12	 2.4;
	 2	 7.2	 3	 6	 0	 1	 100	 1	 12	 2.4;
	 2	 7.2	 3	 6	 0	 1	 100	 1	 12	 2.4;
	 2	 104.65	 15	 80	-50	 1	 100	 1	 155	 54.3;
	 3	 104.65	 15	 80	-50	 1	 100	 1	 155	 54.3;
	 5	 250	 75	 200	-50	 1	 100	 1	 400	 100;
	 8	 250	 75	 200	-50	 1	 100	 1	 400	 100;
	 9	 30	 3	 16	-10	 1	 100	 1	 50	 10;
	 9	 30	 3	 16	-10	 1	 100	 1	 50	 10;
	 9	 30	 3	 16	-10	 1	 100	 1	 50	 10;
	 9	 30	 3	 16	-10	 1	 100	 1	 50	 10;
	 9	 30	 3	 16	-10	 1	 100	 1	 50	 10;
	 9	 30	 3	 16	-10	 1	 100	 1	 50	 10;
];

mpc_regionR2.branch = [
%	fbus        tbus        r           x           b           rateA       rateB       rateC       ratio       angle       status      angmin      angmax      
	 1	 3	 0.005	 0.0389	 0.0818	 500	 600	 625	 0	 0	 1	-30	 30;
	 2	 3	 0.0022	 0.0173	 0.0364	 500	 600	 625	 0	 0	 1	-30	 30;
	 2	 8	 0.0063	 0.049	 0.103	 500	 600	 625	 0	 0	 1	-30	 30;
	 2	 8	 0.0063	 0.049	 0.103	 500	 600	 625	 0	 0	 1	-30	 30;
	 2	 10	 0.0067	 0.0519	 0.1091	 500	 600	 625	 0	 0	 1	-30	 30;
	 3	 4	 0.0033	 0.0259	 0.0545	 500	 600	 625	 0	 0	 1	-30	 30;
	 3	 6	 0.003	 0.0231	 0.0485	 500	 600	 625	 0	 0	 1	-30	 30;
	 4	 5	 0.0018	 0.0144	 0.0303	 500	 600	 625	 0	 0	 1	-30	 30;
	 4	 9	 0.0135	 0.1053	 0.2212	 500	 600	 625	 0	 0	 1	-30	 30;
	 5	 8	 0.0033	 0.0259	 0.0545	 500	 600	 625	 0	 0	 1	-30	 30;
	 5	 8	 0.0033	 0.0259	 0.0545	 500	 600	 625	 0	 0	 1	-30	 30;
	 6	 7	 0.0051	 0.0396	 0.0833	 500	 600	 625	 0	 0	 1	-30	 30;
	 6	 7	 0.0051	 0.0396	 0.0833	 500	 600	 625	 0	 0	 1	-30	 30;
	 8	 9	 0.0087	 0.0678	 0.1424	 500	 600	 625	 0	 0	 1	-30	 30;
];

mpc_regionR2.gencost = [
%	2           startup     shutdown    n           c(n-1)...c0 
	 2	 1500	 0	 3	 0	 0	 0;
	 2	 1500	 0	 3	 0.328412	 56.564	 86.3852;
	 2	 1500	 0	 3	 0.328412	 56.564	 86.3852;
	 2	 1500	 0	 3	 0.328412	 56.564	 86.3852;
	 2	 1500	 0	 3	 0.328412	 56.564	 86.3852;
	 2	 1500	 0	 3	 0.328412	 56.564	 86.3852;
	 2	 1500	 0	 3	 0.008342	 12.3883	 382.2391;
	 2	 1500	 0	 3	 0.008342	 12.3883	 382.2391;
	 2	 1500	 0	 3	 0.000213	 4.4231	 395.3749;
	 2	 1500	 0	 3	 0.000213	 4.4231	 395.3749;
	 2	 1500	 0	 3	 0	 0.001	 0.001;
	 2	 1500	 0	 3	 0	 0.001	 0.001;
	 2	 1500	 0	 3	 0	 0.001	 0.001;
	 2	 1500	 0	 3	 0	 0.001	 0.001;
	 2	 1500	 0	 3	 0	 0.001	 0.001;
	 2	 1500	 0	 3	 0	 0.001	 0.001;
];


% ---------- Interregional Tie-Line Information ----------
% Each row: {From_Region (string), To_Region (string), Branch_Data (1x13 array)}
% Branch_Data: {fbus, tbus, r, x, b, rateA, rateB, rateC, ratio, angle, status, angmin, angmax}

interregional_tielines_total = {
	{'mpc_regionR1', 'mpc_regionR2', [ 3	 10	 0.0023	 0.0839	 0	 400	 510	 600	 1.03	 0	 1	-30	 30]},
	{'mpc_regionR1', 'mpc_regionR2', [ 11	 1	 0.0054	 0.0418	 0.0879	 500	 600	 625	 0	 0	 1	-30	 30]},
	{'mpc_regionR2', 'mpc_regionR1', [ 7	 14	 0.0028	 0.0216	 0.0455	 500	 600	 625	 0	 0	 1	-30	 30]},
	{'mpc_regionR2', 'mpc_regionR1', [ 7	 14	 0.0028	 0.0216	 0.0455	 500	 600	 625	 0	 0	 1	-30	 30]},
};

